# generated using pymatgen
data_MgO2
_symmetry_space_group_name_H-M   P4/nmm
_cell_length_a   3.00978870
_cell_length_b   3.00978870
_cell_length_c   16.12824000
_cell_angle_alpha   90.00000000
_cell_angle_beta   90.00000000
_cell_angle_gamma   90.00000000
_symmetry_Int_Tables_number   129
_chemical_formula_structural   MgO2
_chemical_formula_sum   'Mg2 O4'
_cell_volume   146.10295240
_cell_formula_units_Z   2
loop_
 _symmetry_equiv_pos_site_id
 _symmetry_equiv_pos_as_xyz
  1  'x, y, z'
  2  '-y+1/2, x+1/2, z'
  3  '-x, -y, z'
  4  'y+1/2, -x+1/2, z'
  5  'x+1/2, -y+1/2, -z'
  6  '-y, -x, -z'
  7  '-x+1/2, y+1/2, -z'
  8  'y, x, -z'
  9  '-x+1/2, -y+1/2, -z'
  10  'y, -x, -z'
  11  'x+1/2, y+1/2, -z'
  12  '-y, x, -z'
  13  '-x, y, z'
  14  'y+1/2, x+1/2, z'
  15  'x, -y, z'
  16  '-y+1/2, -x+1/2, z'
loop_
 _atom_site_type_symbol
 _atom_site_label
 _atom_site_symmetry_multiplicity
 _atom_site_fract_x
 _atom_site_fract_y
 _atom_site_fract_z
 _atom_site_occupancy
  Mg  Mg0  2  0.00000000  0.50000000  0.06597868  1
  O  O1  2  0.00000000  0.50000000  0.18998477  1
  O  O2  2  0.00000000  0.50000000  0.93402132  1
